/*--------------------------------*- C++ -*----------------------------------*\
  =========                 |
  \\      /  F ield         | OpenFOAM: The Open Source CFD Toolbox
   \\    /   O peration     | Website:  https://openfoam.org
    \\  /    A nd           | Version:  7
     \\/     M anipulation  |
\*---------------------------------------------------------------------------*/
FoamFile
{
    version     2.0;
    format      ascii;
    class       polyBoundaryMesh;
    location    "constant/polyMesh";
    object      boundary;
}
// * * * * * * * * * * * * * * * * * * * * * * * * * * * * * * * * * * * * * //

8
(
    frontAndBack
    {
        type            empty;
        inGroups        List<word> 1(empty);
        nFaces          8640;
        startFace       8487;
    }
    top
    {
        type            patch;
        nFaces          100;
        startFace       17127;
    }
    walls
    {
        type            wall;
        inGroups        List<word> 1(wall);
        nFaces          142;
        startFace       17227;
    }
    water_inlet
    {
        type            patch;
        nFaces          2;
        startFace       17369;
    }
    air_inlet
    {
        type            patch;
        nFaces          29;
        startFace       17371;
    }
    air_out
    {
        type            patch;
        nFaces          29;
        startFace       17400;
    }
    water_out_up
    {
        type            patch;
        nFaces          2;
        startFace       17429;
    }
    water_out_down
    {
        type            patch;
        nFaces          2;
        startFace       17431;
    }
)

// ************************************************************************* //
